<?xml version="1.0" encoding="UTF-8"?>

<!-- generated on 2024-04-28 14:14:06 by Eclipse SUMO netgenerate Version 1.19.0
<configuration xmlns:xsi="http://www.w3.org/2001/XMLSchema-instance" xsi:noNamespaceSchemaLocation="http://sumo.dlr.de/xsd/netgenerateConfiguration.xsd">

    <grid_network>
        <grid value="true"/>
        <grid.x-number value="20"/>
        <grid.y-number value="5"/>
        <grid.x-length value="200"/>
        <grid.y-length value="40"/>
    </grid_network>

    <output>
        <output-file value="MySUMOFile.net.xml"/>
    </output>

</configuration>
-->

<net version="1.16" junctionCornerDetail="5" limitTurnSpeed="5.50" xmlns:xsi="http://www.w3.org/2001/XMLSchema-instance" xsi:noNamespaceSchemaLocation="http://sumo.dlr.de/xsd/net_file.xsd">

    <location netOffset="0.00,0.00" convBoundary="0.00,0.00,3800.00,160.00" origBoundary="0.00,0.00,3800.00,160.00" projParameter="!"/>

    <edge id=":A0_0" function="internal">
        <lane id=":A0_0_0" index="0" speed="6.08" length="7.74" shape="-1.60,3.20 -1.30,1.10 -0.40,-0.40 1.10,-1.30 3.20,-1.60"/>
    </edge>
    <edge id=":A0_1" function="internal">
        <lane id=":A0_1_0" index="0" speed="3.90" length="2.58" shape="3.20,1.60 2.50,1.70 2.00,2.00 1.70,2.50 1.60,3.20"/>
    </edge>
    <edge id=":A1_0" function="internal">
        <lane id=":A1_0_0" index="0" speed="13.89" length="14.40" shape="-1.60,47.20 -1.60,32.80"/>
    </edge>
    <edge id=":A1_1" function="internal">
        <lane id=":A1_1_0" index="0" speed="8.00" length="4.07" shape="-1.60,47.20 -1.05,43.35 -0.96,43.20"/>
    </edge>
    <edge id=":A1_2" function="internal">
        <lane id=":A1_2_0" index="0" speed="3.65" length="1.44" shape="-1.60,47.20 -0.80,46.00"/>
    </edge>
    <edge id=":A1_9" function="internal">
        <lane id=":A1_9_0" index="0" speed="8.00" length="10.13" shape="-0.96,43.20 0.60,40.60 3.35,38.95 7.20,38.40"/>
    </edge>
    <edge id=":A1_10" function="internal">
        <lane id=":A1_10_0" index="0" speed="3.65" length="3.23" shape="-0.80,46.00 0.00,45.60 0.80,46.00 1.60,47.20"/>
    </edge>
    <edge id=":A1_3" function="internal">
        <lane id=":A1_3_0" index="0" speed="6.51" length="9.03" shape="7.20,41.60 4.75,41.95 3.00,43.00 1.95,44.75 1.60,47.20"/>
    </edge>
    <edge id=":A1_4" function="internal">
        <lane id=":A1_4_0" index="0" speed="8.00" length="14.19" shape="7.20,41.60 3.35,41.05 0.60,39.40 -1.05,36.65 -1.60,32.80"/>
    </edge>
    <edge id=":A1_5" function="internal">
        <lane id=":A1_5_0" index="0" speed="3.65" length="4.67" shape="7.20,41.60 6.00,40.80 5.60,40.00 6.00,39.20 7.20,38.40"/>
    </edge>
    <edge id=":A1_6" function="internal">
        <lane id=":A1_6_0" index="0" speed="6.51" length="9.03" shape="1.60,32.80 1.95,35.25 3.00,37.00 4.75,38.05 7.20,38.40"/>
    </edge>
    <edge id=":A1_7" function="internal">
        <lane id=":A1_7_0" index="0" speed="13.89" length="14.40" shape="1.60,32.80 1.60,47.20"/>
    </edge>
    <edge id=":A1_8" function="internal">
        <lane id=":A1_8_0" index="0" speed="3.65" length="1.44" shape="1.60,32.80 0.80,34.00"/>
    </edge>
    <edge id=":A1_11" function="internal">
        <lane id=":A1_11_0" index="0" speed="3.65" length="3.23" shape="0.80,34.00 0.00,34.40 -0.80,34.00 -1.60,32.80"/>
    </edge>
    <edge id=":A2_0" function="internal">
        <lane id=":A2_0_0" index="0" speed="13.89" length="14.40" shape="-1.60,87.20 -1.60,72.80"/>
    </edge>
    <edge id=":A2_1" function="internal">
        <lane id=":A2_1_0" index="0" speed="8.00" length="4.07" shape="-1.60,87.20 -1.05,83.35 -0.96,83.20"/>
    </edge>
    <edge id=":A2_2" function="internal">
        <lane id=":A2_2_0" index="0" speed="3.65" length="1.44" shape="-1.60,87.20 -0.80,86.00"/>
    </edge>
    <edge id=":A2_9" function="internal">
        <lane id=":A2_9_0" index="0" speed="8.00" length="10.13" shape="-0.96,83.20 0.60,80.60 3.35,78.95 7.20,78.40"/>
    </edge>
    <edge id=":A2_10" function="internal">
        <lane id=":A2_10_0" index="0" speed="3.65" length="3.23" shape="-0.80,86.00 0.00,85.60 0.80,86.00 1.60,87.20"/>
    </edge>
    <edge id=":A2_3" function="internal">
        <lane id=":A2_3_0" index="0" speed="6.51" length="9.03" shape="7.20,81.60 4.75,81.95 3.00,83.00 1.95,84.75 1.60,87.20"/>
    </edge>
    <edge id=":A2_4" function="internal">
        <lane id=":A2_4_0" index="0" speed="8.00" length="14.19" shape="7.20,81.60 3.35,81.05 0.60,79.40 -1.05,76.65 -1.60,72.80"/>
    </edge>
    <edge id=":A2_5" function="internal">
        <lane id=":A2_5_0" index="0" speed="3.65" length="4.67" shape="7.20,81.60 6.00,80.80 5.60,80.00 6.00,79.20 7.20,78.40"/>
    </edge>
    <edge id=":A2_6" function="internal">
        <lane id=":A2_6_0" index="0" speed="6.51" length="9.03" shape="1.60,72.80 1.95,75.25 3.00,77.00 4.75,78.05 7.20,78.40"/>
    </edge>
    <edge id=":A2_7" function="internal">
        <lane id=":A2_7_0" index="0" speed="13.89" length="14.40" shape="1.60,72.80 1.60,87.20"/>
    </edge>
    <edge id=":A2_8" function="internal">
        <lane id=":A2_8_0" index="0" speed="3.65" length="1.44" shape="1.60,72.80 0.80,74.00"/>
    </edge>
    <edge id=":A2_11" function="internal">
        <lane id=":A2_11_0" index="0" speed="3.65" length="3.23" shape="0.80,74.00 0.00,74.40 -0.80,74.00 -1.60,72.80"/>
    </edge>
    <edge id=":A3_0" function="internal">
        <lane id=":A3_0_0" index="0" speed="13.89" length="14.40" shape="-1.60,127.20 -1.60,112.80"/>
    </edge>
    <edge id=":A3_1" function="internal">
        <lane id=":A3_1_0" index="0" speed="8.00" length="4.07" shape="-1.60,127.20 -1.05,123.35 -0.96,123.20"/>
    </edge>
    <edge id=":A3_2" function="internal">
        <lane id=":A3_2_0" index="0" speed="3.65" length="1.44" shape="-1.60,127.20 -0.80,126.00"/>
    </edge>
    <edge id=":A3_9" function="internal">
        <lane id=":A3_9_0" index="0" speed="8.00" length="10.13" shape="-0.96,123.20 0.60,120.60 3.35,118.95 7.20,118.40"/>
    </edge>
    <edge id=":A3_10" function="internal">
        <lane id=":A3_10_0" index="0" speed="3.65" length="3.23" shape="-0.80,126.00 0.00,125.60 0.80,126.00 1.60,127.20"/>
    </edge>
    <edge id=":A3_3" function="internal">
        <lane id=":A3_3_0" index="0" speed="6.51" length="9.03" shape="7.20,121.60 4.75,121.95 3.00,123.00 1.95,124.75 1.60,127.20"/>
    </edge>
    <edge id=":A3_4" function="internal">
        <lane id=":A3_4_0" index="0" speed="8.00" length="14.19" shape="7.20,121.60 3.35,121.05 0.60,119.40 -1.05,116.65 -1.60,112.80"/>
    </edge>
    <edge id=":A3_5" function="internal">
        <lane id=":A3_5_0" index="0" speed="3.65" length="4.67" shape="7.20,121.60 6.00,120.80 5.60,120.00 6.00,119.20 7.20,118.40"/>
    </edge>
    <edge id=":A3_6" function="internal">
        <lane id=":A3_6_0" index="0" speed="6.51" length="9.03" shape="1.60,112.80 1.95,115.25 3.00,117.00 4.75,118.05 7.20,118.40"/>
    </edge>
    <edge id=":A3_7" function="internal">
        <lane id=":A3_7_0" index="0" speed="13.89" length="14.40" shape="1.60,112.80 1.60,127.20"/>
    </edge>
    <edge id=":A3_8" function="internal">
        <lane id=":A3_8_0" index="0" speed="3.65" length="1.44" shape="1.60,112.80 0.80,114.00"/>
    </edge>
    <edge id=":A3_11" function="internal">
        <lane id=":A3_11_0" index="0" speed="3.65" length="3.23" shape="0.80,114.00 0.00,114.40 -0.80,114.00 -1.60,112.80"/>
    </edge>
    <edge id=":A4_0" function="internal">
        <lane id=":A4_0_0" index="0" speed="6.08" length="7.74" shape="3.20,161.60 1.10,161.30 -0.40,160.40 -1.30,158.90 -1.60,156.80"/>
    </edge>
    <edge id=":A4_1" function="internal">
        <lane id=":A4_1_0" index="0" speed="3.90" length="2.58" shape="1.60,156.80 1.70,157.50 2.00,158.00 2.50,158.30 3.20,158.40"/>
    </edge>
    <edge id=":B0_0" function="internal">
        <lane id=":B0_0_0" index="0" speed="6.51" length="9.03" shape="198.40,7.20 198.05,4.75 197.00,3.00 195.25,1.95 192.80,1.60"/>
    </edge>
    <edge id=":B0_1" function="internal">
        <lane id=":B0_1_0" index="0" speed="8.00" length="14.19" shape="198.40,7.20 198.95,3.35 200.60,0.60 203.35,-1.05 207.20,-1.60"/>
    </edge>
    <edge id=":B0_2" function="internal">
        <lane id=":B0_2_0" index="0" speed="3.65" length="4.67" shape="198.40,7.20 199.20,6.00 200.00,5.60 200.80,6.00 201.60,7.20"/>
    </edge>
    <edge id=":B0_3" function="internal">
        <lane id=":B0_3_0" index="0" speed="6.51" length="9.03" shape="207.20,1.60 204.75,1.95 203.00,3.00 201.95,4.75 201.60,7.20"/>
    </edge>
    <edge id=":B0_4" function="internal">
        <lane id=":B0_4_0" index="0" speed="13.89" length="14.40" shape="207.20,1.60 192.80,1.60"/>
    </edge>
    <edge id=":B0_5" function="internal">
        <lane id=":B0_5_0" index="0" speed="3.65" length="1.44" shape="207.20,1.60 206.00,0.80"/>
    </edge>
    <edge id=":B0_9" function="internal">
        <lane id=":B0_9_0" index="0" speed="3.65" length="3.23" shape="206.00,0.80 205.60,0.00 206.00,-0.80 207.20,-1.60"/>
    </edge>
    <edge id=":B0_6" function="internal">
        <lane id=":B0_6_0" index="0" speed="13.89" length="14.40" shape="192.80,-1.60 207.20,-1.60"/>
    </edge>
    <edge id=":B0_7" function="internal">
        <lane id=":B0_7_0" index="0" speed="8.00" length="4.07" shape="192.80,-1.60 196.65,-1.05 196.80,-0.96"/>
    </edge>
    <edge id=":B0_8" function="internal">
        <lane id=":B0_8_0" index="0" speed="3.65" length="1.44" shape="192.80,-1.60 194.00,-0.80"/>
    </edge>
    <edge id=":B0_10" function="internal">
        <lane id=":B0_10_0" index="0" speed="8.00" length="10.13" shape="196.80,-0.96 199.40,0.60 201.05,3.35 201.60,7.20"/>
    </edge>
    <edge id=":B0_11" function="internal">
        <lane id=":B0_11_0" index="0" speed="3.65" length="3.23" shape="194.00,-0.80 194.40,0.00 194.00,0.80 192.80,1.60"/>
    </edge>
    <edge id=":B1_0" function="internal">
        <lane id=":B1_0_0" index="0" speed="6.51" length="9.03" shape="198.40,47.20 198.05,44.75 197.00,43.00 195.25,41.95 192.80,41.60"/>
    </edge>
    <edge id=":B1_1" function="internal">
        <lane id=":B1_1_0" index="0" speed="13.89" length="14.40" shape="198.40,47.20 198.40,32.80"/>
    </edge>
    <edge id=":B1_2" function="internal">
        <lane id=":B1_2_0" index="0" speed="8.00" length="4.07" shape="198.40,47.20 198.95,43.35 199.04,43.20"/>
    </edge>
    <edge id=":B1_3" function="internal">
        <lane id=":B1_3_0" index="0" speed="3.65" length="1.44" shape="198.40,47.20 199.20,46.00"/>
    </edge>
    <edge id=":B1_16" function="internal">
        <lane id=":B1_16_0" index="0" speed="8.00" length="10.13" shape="199.04,43.20 200.60,40.60 203.35,38.95 207.20,38.40"/>
    </edge>
    <edge id=":B1_17" function="internal">
        <lane id=":B1_17_0" index="0" speed="3.65" length="3.23" shape="199.20,46.00 200.00,45.60 200.80,46.00 201.60,47.20"/>
    </edge>
    <edge id=":B1_4" function="internal">
        <lane id=":B1_4_0" index="0" speed="6.51" length="9.03" shape="207.20,41.60 204.75,41.95 203.00,43.00 201.95,44.75 201.60,47.20"/>
    </edge>
    <edge id=":B1_5" function="internal">
        <lane id=":B1_5_0" index="0" speed="13.89" length="14.40" shape="207.20,41.60 192.80,41.60"/>
    </edge>
    <edge id=":B1_6" function="internal">
        <lane id=":B1_6_0" index="0" speed="8.00" length="14.19" shape="207.20,41.60 203.35,41.05 200.60,39.40 198.95,36.65 198.40,32.80"/>
    </edge>
    <edge id=":B1_7" function="internal">
        <lane id=":B1_7_0" index="0" speed="3.65" length="4.67" shape="207.20,41.60 206.00,40.80 205.60,40.00 206.00,39.20 207.20,38.40"/>
    </edge>
    <edge id=":B1_8" function="internal">
        <lane id=":B1_8_0" index="0" speed="6.51" length="9.03" shape="201.60,32.80 201.95,35.25 203.00,37.00 204.75,38.05 207.20,38.40"/>
    </edge>
    <edge id=":B1_9" function="internal">
        <lane id=":B1_9_0" index="0" speed="13.89" length="14.40" shape="201.60,32.80 201.60,47.20"/>
    </edge>
    <edge id=":B1_10" function="internal">
        <lane id=":B1_10_0" index="0" speed="8.00" length="4.07" shape="201.60,32.80 201.05,36.65 200.96,36.80"/>
    </edge>
    <edge id=":B1_11" function="internal">
        <lane id=":B1_11_0" index="0" speed="3.65" length="1.44" shape="201.60,32.80 200.80,34.00"/>
    </edge>
    <edge id=":B1_18" function="internal">
        <lane id=":B1_18_0" index="0" speed="8.00" length="10.13" shape="200.96,36.80 199.40,39.40 196.65,41.05 192.80,41.60"/>
    </edge>
    <edge id=":B1_19" function="internal">
        <lane id=":B1_19_0" index="0" speed="3.65" length="3.23" shape="200.80,34.00 200.00,34.40 199.20,34.00 198.40,32.80"/>
    </edge>
    <edge id=":B1_12" function="internal">
        <lane id=":B1_12_0" index="0" speed="6.51" length="9.03" shape="192.80,38.40 195.25,38.05 197.00,37.00 198.05,35.25 198.40,32.80"/>
    </edge>
    <edge id=":B1_13" function="internal">
        <lane id=":B1_13_0" index="0" speed="13.89" length="14.40" shape="192.80,38.40 207.20,38.40"/>
    </edge>
    <edge id=":B1_14" function="internal">
        <lane id=":B1_14_0" index="0" speed="8.00" length="14.19" shape="192.80,38.40 196.65,38.95 199.40,40.60 201.05,43.35 201.60,47.20"/>
    </edge>
    <edge id=":B1_15" function="internal">
        <lane id=":B1_15_0" index="0" speed="3.65" length="4.67" shape="192.80,38.40 194.00,39.20 194.40,40.00 194.00,40.80 192.80,41.60"/>
    </edge>
    <edge id=":B2_0" function="internal">
        <lane id=":B2_0_0" index="0" speed="6.51" length="9.03" shape="198.40,87.20 198.05,84.75 197.00,83.00 195.25,81.95 192.80,81.60"/>
    </edge>
    <edge id=":B2_1" function="internal">
        <lane id=":B2_1_0" index="0" speed="13.89" length="14.40" shape="198.40,87.20 198.40,72.80"/>
    </edge>
    <edge id=":B2_2" function="internal">
        <lane id=":B2_2_0" index="0" speed="8.00" length="4.07" shape="198.40,87.20 198.95,83.35 199.04,83.20"/>
    </edge>
    <edge id=":B2_3" function="internal">
        <lane id=":B2_3_0" index="0" speed="3.65" length="1.44" shape="198.40,87.20 199.20,86.00"/>
    </edge>
    <edge id=":B2_16" function="internal">
        <lane id=":B2_16_0" index="0" speed="8.00" length="10.13" shape="199.04,83.20 200.60,80.60 203.35,78.95 207.20,78.40"/>
    </edge>
    <edge id=":B2_17" function="internal">
        <lane id=":B2_17_0" index="0" speed="3.65" length="3.23" shape="199.20,86.00 200.00,85.60 200.80,86.00 201.60,87.20"/>
    </edge>
    <edge id=":B2_4" function="internal">
        <lane id=":B2_4_0" index="0" speed="6.51" length="9.03" shape="207.20,81.60 204.75,81.95 203.00,83.00 201.95,84.75 201.60,87.20"/>
    </edge>
    <edge id=":B2_5" function="internal">
        <lane id=":B2_5_0" index="0" speed="13.89" length="14.40" shape="207.20,81.60 192.80,81.60"/>
    </edge>
    <edge id=":B2_6" function="internal">
        <lane id=":B2_6_0" index="0" speed="8.00" length="14.19" shape="207.20,81.60 203.35,81.05 200.60,79.40 198.95,76.65 198.40,72.80"/>
    </edge>
    <edge id=":B2_7" function="internal">
        <lane id=":B2_7_0" index="0" speed="3.65" length="4.67" shape="207.20,81.60 206.00,80.80 205.60,80.00 206.00,79.20 207.20,78.40"/>
    </edge>
    <edge id=":B2_8" function="internal">
        <lane id=":B2_8_0" index="0" speed="6.51" length="9.03" shape="201.60,72.80 201.95,75.25 203.00,77.00 204.75,78.05 207.20,78.40"/>
    </edge>
    <edge id=":B2_9" function="internal">
        <lane id=":B2_9_0" index="0" speed="13.89" length="14.40" shape="201.60,72.80 201.60,87.20"/>
    </edge>
    <edge id=":B2_10" function="internal">
        <lane id=":B2_10_0" index="0" speed="8.00" length="4.07" shape="201.60,72.80 201.05,76.65 200.96,76.80"/>
    </edge>
    <edge id=":B2_11" function="internal">
        <lane id=":B2_11_0" index="0" speed="3.65" length="1.44" shape="201.60,72.80 200.80,74.00"/>
    </edge>
    <edge id=":B2_18" function="internal">
        <lane id=":B2_18_0" index="0" speed="8.00" length="10.13" shape="200.96,76.80 199.40,79.40 196.65,81.05 192.80,81.60"/>
    </edge>
    <edge id=":B2_19" function="internal">
        <lane id=":B2_19_0" index="0" speed="3.65" length="3.23" shape="200.80,74.00 200.00,74.40 199.20,74.00 198.40,72.80"/>
    </edge>
    <edge id=":B2_12" function="internal">
        <lane id=":B2_12_0" index="0" speed="6.51" length="9.03" shape="192.80,78.40 195.25,78.05 197.00,77.00 198.05,75.25 198.40,72.80"/>
    </edge>
    <edge id=":B2_13" function="internal">
        <lane id=":B2_13_0" index="0" speed="13.89" length="14.40" shape="192.80,78.40 207.20,78.40"/>
    </edge>
    <edge id=":B2_14" function="internal">
        <lane id=":B2_14_0" index="0" speed="8.00" length="14.19" shape="192.80,78.40 196.65,78.95 199.40,80.60 201.05,83.35 201.60,87.20"/>
    </edge>
    <edge id=":B2_15" function="internal">
        <lane id=":B2_15_0" index="0" speed="3.65" length="4.67" shape="192.80,78.40 194.00,79.20 194.40,80.00 194.00,80.80 192.80,81.60"/>
    </edge>
    <edge id=":B3_0" function="internal">
        <lane id=":B3_0_0" index="0" speed="6.51" length="9.03" shape="198.40,127.20 198.05,124.75 197.00,123.00 195.25,121.95 192.80,121.60"/>
    </edge>
    <edge id=":B3_1" function="internal">
        <lane id=":B3_1_0" index="0" speed="13.89" length="14.40" shape="198.40,127.20 198.40,112.80"/>
    </edge>
    <edge id=":B3_2" function="internal">
        <lane id=":B3_2_0" index="0" speed="8.00" length="4.07" shape="198.40,127.20 198.95,123.35 199.04,123.20"/>
    </edge>
    <edge id=":B3_3" function="internal">
        <lane id=":B3_3_0" index="0" speed="3.65" length="1.44" shape="198.40,127.20 199.20,126.00"/>
    </edge>
    <edge id=":B3_16" function="internal">
        <lane id=":B3_16_0" index="0" speed="8.00" length="10.13" shape="199.04,123.20 200.60,120.60 203.35,118.95 207.20,118.40"/>
    </edge>
    <edge id=":B3_17" function="internal">
        <lane id=":B3_17_0" index="0" speed="3.65" length="3.23" shape="199.20,126.00 200.00,125.60 200.80,126.00 201.60,127.20"/>
    </edge>
    <edge id=":B3_4" function="internal">
        <lane id=":B3_4_0" index="0" speed="6.51" length="9.03" shape="207.20,121.60 204.75,121.95 203.00,123.00 201.95,124.75 201.60,127.20"/>
    </edge>
    <edge id=":B3_5" function="internal">
        <lane id=":B3_5_0" index="0" speed="13.89" length="14.40" shape="207.20,121.60 192.80,121.60"/>
    </edge>
    <edge id=":B3_6" function="internal">
        <lane id=":B3_6_0" index="0" speed="8.00" length="14.19" shape="207.20,121.60 203.35,121.05 200.60,119.40 198.95,116.65 198.40,112.80"/>
    </edge>
    <edge id=":B3_7" function="internal">
        <lane id=":B3_7_0" index="0" speed="3.65" length="4.67" shape="207.20,121.60 206.00,120.80 205.60,120.00 206.00,119.20 207.20,118.40"/>
    </edge>
    <edge id=":B3_8" function="internal">
        <lane id=":B3_8_0" index="0" speed="6.51" length="9.03" shape="201.60,112.80 201.95,115.25 203.00,117.00 204.75,118.05 207.20,118.40"/>
    </edge>
    <edge id=":B3_9" function="internal">
        <lane id=":B3_9_0" index="0" speed="13.89" length="14.40" shape="201.60,112.80 201.60,127.20"/>
    </edge>
    <edge id=":B3_10" function="internal">
        <lane id=":B3_10_0" index="0" speed="8.00" length="4.07" shape="201.60,112.80 201.05,116.65 200.96,116.80"/>
    </edge>
    <edge id=":B3_11" function="internal">
        <lane id=":B3_11_0" index="0" speed="3.65" length="1.44" shape="201.60,112.80 200.80,114.00"/>
    </edge>
    <edge id=":B3_18" function="internal">
        <lane id=":B3_18_0" index="0" speed="8.00" length="10.13" shape="200.96,116.80 199.40,119.40 196.65,121.05 192.80,121.60"/>
    </edge>
    <edge id=":B3_19" function="internal">
        <lane id=":B3_19_0" index="0" speed="3.65" length="3.23" shape="200.80,114.00 200.00,114.40 199.20,114.00 198.40,112.80"/>
    </edge>
    <edge id=":B3_12" function="internal">
        <lane id=":B3_12_0" index="0" speed="6.51" length="9.03" shape="192.80,118.40 195.25,118.05 197.00,117.00 198.05,115.25 198.40,112.80"/>
    </edge>
    <edge id=":B3_13" function="internal">
        <lane id=":B3_13_0" index="0" speed="13.89" length="14.40" shape="192.80,118.40 207.20,118.40"/>
    </edge>
    <edge id=":B3_14" function="internal">
        <lane id=":B3_14_0" index="0" speed="8.00" length="14.19" shape="192.80,118.40 196.65,118.95 199.40,120.60 201.05,123.35 201.60,127.20"/>
    </edge>
    <edge id=":B3_15" function="internal">
        <lane id=":B3_15_0" index="0" speed="3.65" length="4.67" shape="192.80,118.40 194.00,119.20 194.40,120.00 194.00,120.80 192.80,121.60"/>
    </edge>
    <edge id=":B4_0" function="internal">
        <lane id=":B4_0_0" index="0" speed="13.89" length="14.40" shape="207.20,161.60 192.80,161.60"/>
    </edge>
    <edge id=":B4_1" function="internal">
        <lane id=":B4_1_0" index="0" speed="8.00" length="4.07" shape="207.20,161.60 203.35,161.05 203.20,160.96"/>
    </edge>
    <edge id=":B4_2" function="internal">
        <lane id=":B4_2_0" index="0" speed="3.65" length="1.44" shape="207.20,161.60 206.00,160.80"/>
    </edge>
    <edge id=":B4_9" function="internal">
        <lane id=":B4_9_0" index="0" speed="8.00" length="10.13" shape="203.20,160.96 200.60,159.40 198.95,156.65 198.40,152.80"/>
    </edge>
    <edge id=":B4_10" function="internal">
        <lane id=":B4_10_0" index="0" speed="3.65" length="3.23" shape="206.00,160.80 205.60,160.00 206.00,159.20 207.20,158.40"/>
    </edge>
    <edge id=":B4_3" function="internal">
        <lane id=":B4_3_0" index="0" speed="6.51" length="9.03" shape="201.60,152.80 201.95,155.25 203.00,157.00 204.75,158.05 207.20,158.40"/>
    </edge>
    <edge id=":B4_4" function="internal">
        <lane id=":B4_4_0" index="0" speed="8.00" length="14.19" shape="201.60,152.80 201.05,156.65 199.40,159.40 196.65,161.05 192.80,161.60"/>
    </edge>
    <edge id=":B4_5" function="internal">
        <lane id=":B4_5_0" index="0" speed="3.65" length="4.67" shape="201.60,152.80 200.80,154.00 200.00,154.40 199.20,154.00 198.40,152.80"/>
    </edge>
    <edge id=":B4_6" function="internal">
        <lane id=":B4_6_0" index="0" speed="6.51" length="9.03" shape="192.80,158.40 195.25,158.05 197.00,157.00 198.05,155.25 198.40,152.80"/>
    </edge>
    <edge id=":B4_7" function="internal">
        <lane id=":B4_7_0" index="0" speed="13.89" length="14.40" shape="192.80,158.40 207.20,158.40"/>
    </edge>
    <edge id=":B4_8" function="internal">
        <lane id=":B4_8_0" index="0" speed="3.65" length="1.44" shape="192.80,158.40 194.00,159.20"/>
    </edge>
    <edge id=":B4_11" function="internal">
        <lane id=":B4_11_0" index="0" speed="3.65" length="3.23" shape="194.00,159.20 194.40,160.00 194.00,160.80 192.80,161.60"/>
    </edge>
    <edge id=":C0_0" function="internal">
        <lane id=":C0_0_0" index="0" speed="6.51" length="9.03" shape="398.40,7.20 398.05,4.75 397.00,3.00 395.25,1.95 392.80,1.60"/>
    </edge>
    <edge id=":C0_1" function="internal">
        <lane id=":C0_1_0" index="0" speed="8.00" length="14.19" shape="398.40,7.20 398.95,3.35 400.60,0.60 403.35,-1.05 407.20,-1.60"/>
    </edge>
    <edge id=":C0_2" function="internal">
        <lane id=":C0_2_0" index="0" speed="3.65" length="4.67" shape="398.40,7.20 399.20,6.00 400.00,5.60 400.80,6.00 401.60,7.20"/>
    </edge>
    <edge id=":C0_3" function="internal">
        <lane id=":C0_3_0" index="0" speed="6.51" length="9.03" shape="407.20,1.60 404.75,1.95 403.00,3.00 401.95,4.75 401.60,7.20"/>
    </edge>
    <edge id=":C0_4" function="internal">
        <lane id=":C0_4_0" index="0" speed="13.89" length="14.40" shape="407.20,1.60 392.80,1.60"/>
    </edge>
    <edge id=":C0_5" function="internal">
        <lane id=":C0_5_0" index="0" speed="3.65" length="1.44" shape="407.20,1.60 406.00,0.80"/>
    </edge>
    <edge id=":C0_9" function="internal">
        <lane id=":C0_9_0" index="0" speed="3.65" length="3.23" shape="406.00,0.80 405.60,0.00 406.00,-0.80 407.20,-1.60"/>
    </edge>
    <edge id=":C0_6" function="internal">
        <lane id=":C0_6_0" index="0" speed="13.89" length="14.40" shape="392.80,-1.60 407.20,-1.60"/>
    </edge>
    <edge id=":C0_7" function="internal">
        <lane id=":C0_7_0" index="0" speed="8.00" length="4.07" shape="392.80,-1.60 396.65,-1.05 396.80,-0.96"/>
    </edge>
    <edge id=":C0_8" function="internal">
        <lane id=":C0_8_0" index="0" speed="3.65" length="1.44" shape="392.80,-1.60 394.00,-0.80"/>
    </edge>
    <edge id=":C0_10" function="internal">
        <lane id=":C0_10_0" index="0" speed="8.00" length="10.13" shape="396.80,-0.96 399.40,0.60 401.05,3.35 401.60,7.20"/>
    </edge>
    <edge id=":C0_11" function="internal">
        <lane id=":C0_11_0" index="0" speed="3.65" length="3.23" shape="394.00,-0.80 394.40,0.00 394.00,0.80 392.80,1.60"/>
    </edge>
    <edge id=":C1_0" function="internal">
        <lane id=":C1_0_0" index="0" speed="6.51" length="9.03" shape="398.40,47.20 398.05,44.75 397.00,43.00 395.25,41.95 392.80,41.60"/>
    </edge>
    <edge id=":C1_1" function="internal">
        <lane id=":C1_1_0" index="0" speed="13.89" length="14.40" shape="398.40,47.20 398.40,32.80"/>
    </edge>
    <edge id=":C1_2" function="internal">
        <lane id=":C1_2_0" index="0" speed="8.00" length="4.07" shape="398.40,47.20 398.95,43.35 399.04,43.20"/>
    </edge>
    <edge id=":C1_3" function="internal">
        <lane id=":C1_3_0" index="0" speed="3.65" length="1.44" shape="398.40,47.20 399.20,46.00"/>
    </edge>
    <edge id=":C1_16" function="internal">
        <lane id=":C1_16_0" index="0" speed="8.00" length="10.13" shape="399.04,43.20 400.60,40.60 403.35,38.95 407.20,38.40"/>
    </edge>
    <edge id=":C1_17" function="internal">
        <lane id=":C1_17_0" index="0" speed="3.65" length="3.23" shape="399.20,46.00 400.00,45.60 400.80,46.00 401.60,47.20"/>
    </edge>
    <edge id=":C1_4" function="internal">
        <lane id=":C1_4_0" index="0" speed="6.51" length="9.03" shape="407.20,41.60 404.75,41.95 403.00,43.00 401.95,44.75 401.60,47.20"/>
    </edge>
    <edge id=":C1_5" function="internal">
        <lane id=":C1_5_0" index="0" speed="13.89" length="14.40" shape="407.20,41.60 392.80,41.60"/>
    </edge>
    <edge id=":C1_6" function="internal">
        <lane id=":C1_6_0" index="0" speed="8.00" length="14.19" shape="407.20,41.60 403.35,41.05 400.60,39.40 398.95,36.65 398.40,32.80"/>
    </edge>
    <edge id=":C1_7" function="internal">
        <lane id=":C1_7_0" index="0" speed="3.65" length="4.67" shape="407.20,41.60 406.00,40.80 405.60,40.00 406.00,39.20 407.20,38.40"/>
    </edge>
    <edge id=":C1_8" function="internal">
        <lane id=":C1_8_0" index="0" speed="6.51" length="9.03" shape="401.60,32.80 401.95,35.25 403.00,37.00 404.75,38.05 407.20,38.40"/>
    </edge>
    <edge id=":C1_9" function="internal">
        <lane id=":C1_9_0" index="0" speed="13.89" length="14.40" shape="401.60,32.80 401.60,47.20"/>
    </edge>
    <edge id=":C1_10" function="internal">
        <lane id=":C1_10_0" index="0" speed="8.00" length="4.07" shape="401.60,32.80 401.05,36.65 400.96,36.80"/>
    </edge>
    <edge id=":C1_11" function="internal">
        <lane id=":C1_11_0" index="0" speed="3.65" length="1.44" shape="401.60,32.80 400.80,34.00"/>
    </edge>
    <edge id=":C1_18" function="internal">
        <lane id=":C1_18_0" index="0" speed="8.00" length="10.13" shape="400.96,36.80 399.40,39.40 396.65,41.05 392.80,41.60"/>
    </edge>
    <edge id=":C1_19" function="internal">
        <lane id=":C1_19_0" index="0" speed="3.65" length="3.23" shape="400.80,34.00 400.00,34.40 399.20,34.00 398.40,32.80"/>
    </edge>
    <edge id=":C1_12" function="internal">
        <lane id=":C1_12_0" index="0" speed="6.51" length="9.03" shape="392.80,38.40 395.25,38.05 397.00,37.00 398.05,35.25 398.40,32.80"/>
    </edge>
    <edge id=":C1_13" function="internal">
        <lane id=":C1_13_0" index="0" speed="13.89" length="14.40" shape="392.80,38.40 407.20,38.40"/>
    </edge>
    <edge id=":C1_14" function="internal">
        <lane id=":C1_14_0" index="0" speed="8.00" length="14.19" shape="392.80,38.40 396.65,38.95 399.40,40.60 401.05,43.35 401.60,47.20"/>
    </edge>
    <edge id=":C1_15" function="internal">
        <lane id=":C1_15_0" index="0" speed="3.65" length="4.67" shape="392.80,38.40 394.00,39.20 394.40,40.00 394.00,40.80 392.80,41.60"/>
    </edge>
    <edge id=":C2_0" function="internal">
        <lane id=":C2_0_0" index="0" speed="6.51" length="9.03" shape="398.40,87.20 398.05,84.75 397.00,83.00 395.25,81.95 392.80,81.60"/>
    </edge>
    <edge id=":C2_1" function="internal">
        <lane id=":C2_1_0" index="0" speed="13.89" length="14.40" shape="398.40,87.20 398.40,72.80"/>
    </edge>
    <edge id=":C2_2" function="internal">
        <lane id=":C2_2_0" index="0" speed="8.00" length="4.07" shape="398.40,87.20 398.95,83.35 399.04,83.20"/>
    </edge>
    <edge id=":C2_3" function="internal">
        <lane id=":C2_3_0" index="0" speed="3.65" length="1.44" shape="398.40,87.20 399.20,86.00"/>
    </edge>
    <edge id=":C2_16" function="internal">
        <lane id=":C2_16_0" index="0" speed="8.00" length="10.13" shape="399.04,83.20 400.60,80.60 403.35,78.95 407.20,78.40"/>
    </edge>
    <edge id=":C2_17" function="internal">
        <lane id=":C2_17_0" index="0" speed="3.65" length="3.23" shape="399.20,86.00 400.00,85.60 400.80,86.00 401.60,87.20"/>
    </edge>
    <edge id=":C2_4" function="internal">
        <lane id=":C2_4_0" index="0" speed="6.51" length="9.03" shape="407.20,81.60 404.75,81.95 403.00,83.00 401.95,84.75 401.60,87.20"/>
    </edge>
    <edge id=":C2_5" function="internal">
        <lane id=":C2_5_0" index="0" speed="13.89" length="14.40" shape="407.20,81.60 392.80,81.60"/>
    </edge>
    <edge id=":C2_6" function="internal">
        <lane id=":C2_6_0" index="0" speed="8.00" length="14.19" shape="407.20,81.60 403.35,81.05 400.60,79.40 398.95,76.65 398.40,72.80"/>
    </edge>